<?xml version="1.0" encoding="UTF-8"?>

<!-- generated on 2024-04-18 22:52:31 by Eclipse SUMO netedit Version 1.19.0
-->

<additional xmlns:xsi="http://www.w3.org/2001/XMLSchema-instance" xsi:noNamespaceSchemaLocation="http://sumo.dlr.de/xsd/additional_file.xsd">
    <!-- Shapes -->
    <poly id="1018254356" type="building.yes" color="255,230,230" fill="1" layer="-1.00" shape="11191.416133,11978.450498 11236.171740,11982.709536 11237.462946,11969.271898 11192.707271,11965.012852 11191.416133,11978.450498"/>
    <poly id="1018254357" type="building.yes" color="255,230,230" fill="1" layer="-1.00" shape="11221.208792,11877.876116 11219.941144,11891.002872 11271.947533,11895.946552 11273.206375,11882.830997 11221.208792,11877.876116"/>
    <poly id="1018254358" type="landuse.construction" color="194,194,130" fill="1" layer="-3.00" shape="11122.222175,11926.773729 11125.694153,11875.560267 11141.015309,11772.252047 11254.026361,11786.741989 11367.928243,11797.950838 11323.384780,11982.268159 11299.200135,12067.215300 11149.234564,11965.931477 11128.742339,11948.355454 11122.222175,11926.773729"/>
    <poly id="1018254359" type="building.yes" color="255,230,230" fill="1" layer="-1.00" shape="12428.223926,11602.422483 12443.010929,11614.207043 12484.005426,11563.235031 12469.218397,11551.450402 12428.223926,11602.422483"/>
    <poly id="1018254360" type="building.yes" color="255,230,230" fill="1" layer="-1.00" shape="12009.308769,11521.412852 12068.985949,11542.883313 12073.234402,11531.165876 12013.557154,11509.695385 12009.308769,11521.412852"/>
    <poly id="1018254361" type="building.yes" color="255,230,230" fill="1" layer="-1.00" shape="11996.901937,11579.769178 12012.553821,11582.557690 12022.109925,11529.524587 12006.466958,11526.735957 11996.901937,11579.769178"/>
    <poly id="1018254362" type="natural.tree_row" color="140,196,107" fill="0" layer="-4.00" shape="11968.027840,11895.711304 12238.745372,11991.823384"/>
    <poly id="1018254363" type="landuse.industrial" color="209,209,204" fill="1" layer="-3.00" shape="11977.490931,11833.538068 12276.220877,11928.375694 12363.148594,11836.004752 12460.993399,11769.495314 12569.689336,11722.103594 12460.091260,11687.712807 12395.101704,11666.298380 12343.885415,11666.863865 12278.985901,11741.674465 12195.368828,11783.977815 12113.190134,11782.002894 12062.831625,11772.931363 12008.971499,11796.624839 11977.490931,11833.538068"/>
    <poly id="1072810251" type="building.yes" color="255,230,230" fill="1" layer="-1.00" shape="7832.197716,12924.481877 7842.259473,12921.403512 7828.007059,12875.218741 7817.945252,12878.297121 7832.197716,12924.481877"/>
    <poly id="1072810252" type="amenity.college" color="237,199,199" fill="1" layer="-2.00" shape="7041.039631,13076.298434 7138.548158,13047.261807 7097.147459,12935.652632 7008.789922,12962.419713 7041.039631,13076.298434"/>
    <poly id="1072810258" type="building.yes" color="255,230,230" fill="1" layer="-1.00" shape="6775.277646,13385.354845 6826.519945,13366.961784 6821.084606,13351.959926 6769.842229,13370.353017 6775.277646,13385.354845"/>
    <poly id="1072810261" type="building.yes" color="255,230,230" fill="1" layer="-1.00" shape="6781.886066,13331.162193 6812.627253,13321.140369 6807.826941,13306.530477 6777.085707,13316.552315 6781.886066,13331.162193"/>
    <poly id="1072810262" type="building.yes" color="255,230,230" fill="1" layer="-1.00" shape="6603.095489,13268.066072 6621.952857,13324.712087 6790.420280,13269.103755 6771.563910,13212.457404 6603.095489,13268.066072"/>
    <poly id="1072810268" type="building.yes" color="255,230,230" fill="1" layer="-1.00" shape="7390.026313,12899.297897 7394.649575,12914.242942 7455.799928,12895.494587 7451.176635,12880.538420 7390.026313,12899.297897"/>
    <poly id="1072810269" type="building.yes" color="255,230,230" fill="1" layer="-1.00" shape="7139.738476,12661.296368 7127.401859,12664.734833 7129.544067,12672.331297 7132.174712,12671.590671 7136.722402,12687.734598 7146.410334,12685.036976 7139.738476,12661.296368"/>
    <poly id="1072810270" type="building.yes" color="255,230,230" fill="1" layer="-1.00" shape="7196.205021,12811.225716 7209.376724,12807.577937 7199.920360,12773.652341 7186.748609,12777.300133 7196.205021,12811.225716"/>
    <poly id="1072810271" type="building.yes" color="255,230,230" fill="1" layer="-1.00" shape="7317.273584,13039.646967 7323.772643,13060.982364 7398.828656,13038.311192 7389.089704,13006.341193 7325.684100,13025.493444 7317.273584,13039.646967"/>
    <poly id="1081569413" type="landuse.construction" color="194,194,130" fill="1" layer="-3.00" shape="12504.372408,14963.678400 12452.729834,14901.880538 12430.464923,14856.676105 12453.150330,14843.734518 12523.001854,14823.937957 12548.521328,14827.883030 12582.903035,14816.410232 12640.452168,14788.297016 12695.044313,14780.296094 12697.586726,14770.749820 12722.298919,14748.811942 12713.356447,14804.400376 12729.869493,14858.133199 12710.654711,14945.018756 12662.403498,14949.776980 12532.121337,14977.105991 12517.784294,14976.210318 12504.372408,14963.678400"/>
    <poly id="1081569414" type="landuse.quarry" color="194,194,130" fill="1" layer="-3.00" shape="12438.827451,14844.957681 12401.734396,14754.455669 12631.065271,14658.905402 12658.692835,14661.252289 12691.439166,14694.183269 12690.152485,14770.310314 12438.827451,14844.957681"/>
    <poly id="1081569419" type="landuse.landfill" color="194,194,130" fill="1" layer="-3.00" shape="12651.627194,14528.373919 12603.869057,14421.226290 12444.803493,14480.135352 12326.837308,14494.684536 12216.414987,14589.491446 12151.715043,14530.579913 12126.256287,14559.849448 12124.624648,14638.543153 12200.064812,14689.891772 12419.763511,14699.054913 12782.301362,14535.210735 12651.627194,14528.373919"/>
    <poly id="1081579667" type="landuse.orchard" color="194,194,130" fill="1" layer="-3.00" shape="10625.439839,14303.259128 10614.730443,14199.876049 10744.099963,14226.166670 10745.420331,14253.908082 10652.084612,14283.711975 10656.454048,14292.659767 10625.439839,14303.259128"/>
    <poly id="1081579669" type="landuse.orchard" color="194,194,130" fill="1" layer="-3.00" shape="11080.111367,14361.156597 11014.804884,14382.389150 10946.191379,14399.410428 10855.413375,14410.679347 10843.342203,14409.572355 10826.224001,14383.261863 10815.367905,14355.627507 10815.409554,14336.878816 10830.280823,14319.461269 10877.623556,14308.923460 10979.622428,14290.284892 11013.502341,14288.651608 11030.900235,14317.455380 11064.486048,14312.087038 11079.778232,14331.407260 11080.111367,14361.156597"/>
    <poly id="1081579670" type="landuse.orchard" color="194,194,130" fill="1" layer="-3.00" shape="10803.417885,14364.514562 10840.696106,14419.342260 10776.400754,14419.065826 10729.887363,14413.586781 10716.003329,14384.999234 10803.417885,14364.514562"/>
    <poly id="1081579671" type="landuse.orchard" color="194,194,130" fill="1" layer="-3.00" shape="10709.099121,14374.071960 10697.159699,14361.459594 10797.566118,14335.825605 10800.283347,14354.044101 10751.722936,14367.591299 10709.099121,14374.071960"/>
    <poly id="1081579672" type="landuse.landfill" color="194,194,130" fill="1" layer="-3.00" shape="11531.967137,14745.526871 11487.445959,14734.363928 11496.138960,14684.545457 11439.379436,14681.495536 11396.952428,14691.786892 11296.562751,14757.362006 11253.156646,14790.384736 11236.796035,14816.349220 11211.871286,14847.934143 11229.782534,14795.560559 11249.160867,14764.037705 11279.109500,14740.373058 11336.677214,14705.350733 11392.310454,14662.374097 11435.882086,14644.082557 11473.463911,14641.821742 11509.332038,14650.629422 11542.246251,14672.360933 11531.967137,14745.526871"/>
    <poly id="1081579673" type="landuse.residential" color="235,235,227" fill="1" layer="-3.00" shape="10433.705345,15144.552608 10411.868925,15121.468884 10410.490031,15108.593610 10397.390107,15095.240375 10395.955766,15077.451240 10583.892714,14957.474671 10618.566317,14970.585382 10657.465283,15030.308550 10642.768397,15039.071458 10673.135550,15108.087309 10676.760324,15156.547944 10576.933325,15215.979486 10523.090097,15198.170398 10477.241461,15177.819835 10433.705345,15144.552608"/>
    <poly id="1081579675" type="landuse.residential" color="235,235,227" fill="1" layer="-3.00" shape="9929.319778,15518.519658 10051.770164,15391.652150 10109.003005,15386.722344 10233.473676,15564.988140 10185.792335,15591.907779 10123.659667,15606.155769 10074.960919,15605.985691 10025.405695,15593.001292 9982.190918,15571.392115 9929.319778,15518.519658"/>
    <poly id="1081579680" type="landuse.construction" color="194,194,130" fill="1" layer="-3.00" shape="10245.050636,15523.278273 10207.572446,15473.813548 10221.161219,15431.637173 10192.461096,15382.073315 10155.875084,15334.340415 10097.476865,15378.765458 10094.224838,15324.532020 10220.483975,15216.305710 10351.953451,15101.898847 10477.967039,15204.647200 10666.018325,15274.316862 10366.423379,15527.166272 10332.862210,15513.533741 10240.258182,15565.344136 10245.050636,15523.278273"/>
    <poly id="1081582759" type="building.yes" color="255,230,230" fill="1" layer="-1.00" shape="9516.841974,14958.302422 9551.887555,14957.249190 9551.452651,14942.765783 9516.407138,14943.830109 9516.841974,14958.302422"/>
    <poly id="1081582760" type="building.yes" color="255,230,230" fill="1" layer="-1.00" shape="9520.411771,14926.178862 9555.457481,14925.125646 9555.022584,14910.642240 9519.976942,14911.706549 9520.411771,14926.178862"/>
    <poly id="1081582761" type="building.yes" color="255,230,230" fill="1" layer="-1.00" shape="9570.463345,14926.974029 9605.369017,14930.238049 9606.735917,14915.811815 9571.830314,14912.558882 9570.463345,14926.974029"/>
    <poly id="1081582762" type="building.yes" color="255,230,230" fill="1" layer="-1.00" shape="9563.054472,14984.201862 9562.782132,14968.174584 9609.672359,14967.364058 9609.944865,14983.413520 9563.054472,14984.201862"/>
    <poly id="1081582763" type="building.yes" color="255,230,230" fill="1" layer="-1.00" shape="9562.747482,14958.002068 9562.475142,14941.974791 9609.365510,14941.164267 9609.638016,14957.213729 9562.747482,14958.002068"/>
    <poly id="1081582764" type="building.yes" color="255,230,230" fill="1" layer="-1.00" shape="9629.217892,14953.463372 9664.263491,14952.410590 9663.828773,14937.927182 9628.783242,14938.991057 9629.217892,14953.463372"/>
    <poly id="1081582765" type="building.yes" color="255,230,230" fill="1" layer="-1.00" shape="9673.258631,14955.481185 9703.808774,14954.268854 9703.218909,14939.598616 9672.677719,14940.810846 9673.258631,14955.481185"/>
    <poly id="1081582766" type="building.yes" color="255,230,230" fill="1" layer="-1.00" shape="9632.104392,14980.033215 9631.832052,14963.994846 9678.722422,14963.195783 9678.994801,14979.245245 9632.104392,14980.033215"/>
    <poly id="1081582767" type="building.yes" color="255,230,230" fill="1" layer="-1.00" shape="9639.247694,15009.538881 9638.975493,14993.511603 9685.865578,14992.701483 9686.137946,15008.750945 9639.247694,15009.538881"/>
    <poly id="1081582768" type="building.yes" color="255,230,230" fill="1" layer="-1.00" shape="9694.367464,15007.847626 9694.095237,14991.809256 9740.985453,14991.010524 9741.257594,15007.048893 9694.367464,15007.847626"/>
    <poly id="1081582769" type="building.yes" color="255,230,230" fill="1" layer="-1.00" shape="9571.606519,15012.448964 9571.325063,14996.410696 9618.224268,14995.611203 9618.496760,15011.660666 9571.606519,15012.448964"/>
    <poly id="1081582770" type="building.yes" color="255,230,230" fill="1" layer="-1.00" shape="9693.268815,14980.891369 9728.314304,14979.838840 9727.879691,14965.355431 9692.834271,14966.419052 9693.268815,14980.891369"/>
    <poly id="1081582777" type="leisure.pitch" color="207,245,201" fill="1" layer="-2.00" shape="9919.481100,15427.463318 9920.273307,15388.515529 9946.888564,15389.045929 9946.087236,15427.993815 9919.481100,15427.463318"/>
    <poly id="1081582777#1" type="sport.soccer" color="79,230,125" fill="1" layer="-2.00" shape="9919.481100,15427.463318 9920.273307,15388.515529 9946.888564,15389.045929 9946.087236,15427.993815 9919.481100,15427.463318"/>
    <poly id="1081591115" type="amenity.grave_yard" color="237,199,199" fill="1" layer="-1.00" shape="12823.140445,9064.435558 12744.190985,9000.250761 12699.402980,8976.293064 12678.211433,8979.843006 12680.534162,9001.771414 12784.628601,9081.842576 12832.689841,9138.079975 12809.039163,9144.141546 12860.279104,9187.087503 12897.841939,9234.332752 12848.856085,9245.642106 12843.267660,9267.657400 12901.287688,9320.890428 12943.374037,9287.691987 12979.237361,9180.812741 12918.746630,9205.504496 12911.068556,9188.194195 12929.104175,9163.135937 12925.629589,9150.327835 12868.149629,9145.567079 12851.199477,9079.869122 12823.140445,9064.435558"/>
    <poly id="1081591116" type="amenity.grave_yard" color="237,199,199" fill="1" layer="-1.00" shape="12743.148422,8866.830177 12741.208370,8841.991073 12953.225336,8782.488295 12961.058097,8813.064690 12743.148422,8866.830177"/>
    <poly id="1119454624" type="amenity.fuel" color="237,199,199" fill="1" layer="-1.00" shape="8941.116969,9994.121338 8939.857909,9961.209844 8975.640819,9959.847018 8976.890736,9992.758617 8941.116969,9994.121338"/>
    <poly id="1119454624#1" type="building.roof" color="255,230,230" fill="1" layer="-1.00" shape="8941.116969,9994.121338 8939.857909,9961.209844 8975.640819,9959.847018 8976.890736,9992.758617 8941.116969,9994.121338"/>
    <poly id="1119454625" type="leisure.pitch" color="207,245,201" fill="1" layer="-2.00" shape="9120.141129,10059.382665 9120.069308,10033.335667 9134.773691,10033.289998 9134.845469,10059.336996 9120.141129,10059.382665"/>
    <poly id="1119454625#1" type="sport.basketball" color="79,230,125" fill="1" layer="-2.00" shape="9120.141129,10059.382665 9120.069308,10033.335667 9134.773691,10033.289998 9134.845469,10059.336996 9120.141129,10059.382665"/>
    <poly id="1119454626" type="leisure.pitch" color="207,245,201" fill="1" layer="-2.00" shape="9136.544784,10059.018089 9136.473012,10032.971092 9151.177395,10032.925451 9151.258133,10058.972345 9136.544784,10059.018089"/>
    <poly id="1119454626#1" type="sport.basketball" color="79,230,125" fill="1" layer="-2.00" shape="9136.544784,10059.018089 9136.473012,10032.971092 9151.177395,10032.925451 9151.258133,10058.972345 9136.544784,10059.018089"/>
    <poly id="1119454627" type="amenity.fuel" color="237,199,199" fill="1" layer="-1.00" shape="9463.177817,10190.585868 9461.329540,10177.006115 9463.251477,10175.664129 9474.137734,10176.627566 9476.184549,10187.065574 9465.956629,10190.909277 9463.177817,10190.585868"/>
    <poly id="1119454627#1" type="building.roof" color="255,230,230" fill="1" layer="-1.00" shape="9463.177817,10190.585868 9461.329540,10177.006115 9463.251477,10175.664129 9474.137734,10176.627566 9476.184549,10187.065574 9465.956629,10190.909277 9463.177817,10190.585868"/>
    <poly id="1119454628" type="leisure.pitch" color="207,245,201" fill="1" layer="-2.00" shape="9248.445558,10407.957110 9246.597351,10380.965202 9261.101220,10379.979052 9262.949383,10406.970963 9248.445558,10407.957110"/>
    <poly id="1119454628#1" type="sport.basketball" color="79,230,125" fill="1" layer="-2.00" shape="9248.445558,10407.957110 9246.597351,10380.965202 9261.101220,10379.979052 9262.949383,10406.970963 9248.445558,10407.957110"/>
    <poly id="1119906830" type="amenity.fuel" color="237,199,199" fill="1" layer="-1.00" shape="10220.108734,11123.748851 10226.335576,11101.524686 10206.588611,11096.045415 10200.370822,11118.269493 10220.108734,11123.748851"/>
    <poly id="1119906830#1" type="building.roof" color="255,230,230" fill="1" layer="-1.00" shape="10220.108734,11123.748851 10226.335576,11101.524686 10206.588611,11096.045415 10200.370822,11118.269493 10220.108734,11123.748851"/>
    <poly id="1119906831" type="leisure.pitch" color="207,245,201" fill="1" layer="-2.00" shape="8196.048200,11309.100678 8176.264452,11244.197530 8226.558763,11228.996936 8246.342164,11293.900188 8196.048200,11309.100678"/>
    <poly id="1119906831#1" type="sport.soccer" color="79,230,125" fill="1" layer="-2.00" shape="8196.048200,11309.100678 8176.264452,11244.197530 8226.558763,11228.996936 8246.342164,11293.900188 8196.048200,11309.100678"/>
    <poly id="1119910533" type="leisure.pitch" color="207,245,201" fill="1" layer="-2.00" shape="7331.196505,9058.107473 7324.727851,9014.761896 7391.784537,9004.853786 7398.243596,9048.177324 7331.196505,9058.107473"/>
    <poly id="1119910533#1" type="sport.soccer" color="79,230,125" fill="1" layer="-2.00" shape="7331.196505,9058.107473 7324.727851,9014.761896 7391.784537,9004.853786 7398.243596,9048.177324 7331.196505,9058.107473"/>
    <poly id="1119910534" type="amenity.fuel" color="237,199,199" fill="1" layer="-1.00" shape="4841.897727,9583.464715 4833.865626,9546.817589 4862.824331,9540.515892 4870.847437,9577.174241 4841.897727,9583.464715"/>
    <poly id="1119910534#1" type="building.roof" color="255,230,230" fill="1" layer="-1.00" shape="4841.897727,9583.464715 4833.865626,9546.817589 4862.824331,9540.515892 4870.847437,9577.174241 4841.897727,9583.464715"/>
    <poly id="1127728574" type="building.apartments" color="255,230,230" fill="1" layer="-1.00" shape="7287.449176,14609.461295 7355.184143,14588.782537 7359.423981,14602.567187 7291.689113,14623.245914 7287.449176,14609.461295"/>
    <poly id="1127728577" type="leisure.pitch" color="207,245,201" fill="1" layer="-2.00" shape="9619.547536,13600.045584 9651.278088,13681.722728 9703.656520,13661.547632 9671.926398,13579.870311 9619.547536,13600.045584"/>
    <poly id="1127728577#1" type="sport.soccer" color="79,230,125" fill="1" layer="-2.00" shape="9619.547536,13600.045584 9651.278088,13681.722728 9703.656520,13661.547632 9671.926398,13579.870311 9619.547536,13600.045584"/>
    <poly id="1127728598" type="building.yes" color="255,230,230" fill="1" layer="-1.00" shape="11905.615206,11984.752472 11885.584945,11967.258353 11895.406360,11956.111296 11915.436626,11973.605437 11905.615206,11984.752472"/>
    <poly id="1127728602" type="building.yes" color="255,230,230" fill="1" layer="-1.00" shape="10817.046257,12680.551408 10798.527458,12651.727306 10827.531788,12633.252694 10846.050650,12662.087948 10817.046257,12680.551408"/>
    <poly id="1127728603" type="building.yes" color="255,230,230" fill="1" layer="-1.00" shape="10839.076645,12716.491516 10820.557991,12687.667369 10849.562242,12669.192827 10868.080959,12698.028126 10839.076645,12716.491516"/>
    <poly id="1127728604" type="landuse.construction" color="194,194,130" fill="1" layer="-3.00" shape="10754.034917,12331.278042 10696.811980,12204.178003 10923.653378,12137.522832 10984.549431,12230.115349 10913.860945,12264.443325 10855.994825,12288.643838 10754.034917,12331.278042"/>
    <poly id="1132433681" type="building.yes" color="255,230,230" fill="1" layer="-1.00" shape="3367.139083,10712.952842 3415.744092,10678.286231 3425.273982,10691.517253 3376.669147,10726.194905 3367.139083,10712.952842"/>
    <poly id="1132433682" type="building.yes" color="255,230,230" fill="1" layer="-1.00" shape="3362.149640,10757.932144 3349.751850,10740.741996 3352.056527,10739.094482 3348.153017,10733.683393 3360.596407,10724.780190 3365.856069,10732.071976 3363.221014,10733.967537 3366.785443,10738.905686 3364.400489,10740.620728 3367.754104,10745.261886 3365.833450,10746.627415 3369.956896,10752.346487 3362.149640,10757.932144"/>
    <poly id="1132433683" type="building.yes" color="255,230,230" fill="1" layer="-1.00" shape="3415.584469,10791.323647 3396.512704,10763.108948 3403.707614,10758.296184 3422.779365,10786.510899 3415.584469,10791.323647"/>
    <poly id="1132433684" type="building.yes" color="255,230,230" fill="1" layer="-1.00" shape="3396.512704,10763.108948 3385.442017,10746.879008 3392.842795,10741.952813 3403.707614,10758.296184 3396.512704,10763.108948"/>
    <poly id="1132433685" type="building.yes" color="255,230,230" fill="1" layer="-1.00" shape="3385.442017,10746.879008 3375.391985,10732.356319 3382.422748,10727.379110 3392.842795,10741.952813 3385.442017,10746.879008"/>
    <poly id="1132433686" type="building.yes" color="255,230,230" fill="1" layer="-1.00" shape="3451.534021,10753.226516 3426.292867,10716.987597 3437.212063,10709.445242 3462.462067,10745.672991 3451.534021,10753.226516"/>
    <poly id="1132433687" type="building.yes" color="255,230,230" fill="1" layer="-1.00" shape="3449.553978,10763.867222 3467.462089,10751.614512 3489.735957,10783.884410 3471.542018,10796.340211 3464.774465,10786.526043 3471.834129,10781.703871 3463.590252,10769.755285 3456.825592,10774.385311 3449.553978,10763.867222"/>
    <poly id="1132433689" type="building.yes" color="255,230,230" fill="1" layer="-1.00" shape="3441.296514,10824.783388 3421.212972,10792.598136 3429.556951,10787.438721 3449.631464,10819.624101 3441.296514,10824.783388"/>
    <poly id="1132433690" type="building.yes" color="255,230,230" fill="1" layer="-1.00" shape="3264.176040,10808.659982 3283.805993,10780.843563 3294.246539,10788.150415 3274.625580,10815.966701 3264.176040,10808.659982"/>
    <poly id="1132433691" type="building.yes" color="255,230,230" fill="1" layer="-1.00" shape="3300.771566,10817.414960 3333.384744,10795.565756 3339.989751,10805.337414 3307.376596,10827.186594 3300.771566,10817.414960"/>
    <poly id="1132433692" type="building.yes" color="255,230,230" fill="1" layer="-1.00" shape="3324.435394,10849.101890 3314.515712,10833.435026 3323.556097,10827.756782 3333.475902,10843.434748 3324.435394,10849.101890"/>
    <poly id="1132433693" type="building.yes" color="255,230,230" fill="1" layer="-1.00" shape="3349.059326,10841.649179 3340.096953,10826.913716 3352.261789,10819.578093 3344.356529,10806.582704 3346.664265,10805.190310 3339.264761,10793.043051 3349.676417,10786.760313 3361.000978,10805.361237 3359.131445,10806.482087 3363.166749,10813.111916 3357.692616,10816.417375 3362.297686,10823.972215 3357.887943,10826.632480 3362.199116,10833.724924 3349.059326,10841.649179"/>
    <poly id="1132433694" type="building.yes" color="255,230,230" fill="1" layer="-1.00" shape="3345.597702,10882.560804 3324.441073,10851.065438 3339.599919,10840.975660 3353.793155,10862.115738 3351.549697,10863.607200 3353.898291,10867.095621 3350.448329,10869.400400 3355.063098,10876.267299 3345.597702,10882.560804"/>
    <poly id="1132433695" type="building.yes" color="255,230,230" fill="1" layer="-1.00" shape="3381.136320,10840.330298 3393.934396,10831.711298 3390.274581,10826.330535 3400.418296,10819.496395 3418.377838,10845.894022 3428.074603,10839.353745 3409.592229,10812.185832 3404.203035,10815.811958 3398.479381,10807.394172 3383.661530,10817.379885 3387.743236,10823.376814 3375.311691,10831.758429 3381.136320,10840.330298"/>
    <poly id="1132433696" type="building.yes" color="255,230,230" fill="1" layer="-1.00" shape="3367.351387,10876.928892 3373.977974,10846.673598 3387.690847,10849.658843 3381.073091,10879.902925 3367.351387,10876.928892"/>
    <poly id="1132433697" type="building.yes" color="255,230,230" fill="1" layer="-1.00" shape="3463.304272,10927.668946 3445.331469,10900.894202 3455.467197,10894.148971 3473.448989,10920.923626 3468.139845,10924.460000 3463.304272,10927.668946"/>
    <poly id="1132433698" type="building.yes" color="255,230,230" fill="1" layer="-1.00" shape="3468.139845,10924.460000 3483.988553,10947.688158 3474.470837,10954.126375 3458.603829,10930.876266 3463.304272,10927.668946 3468.139845,10924.460000"/>
    <poly id="1132433699" type="building.yes" color="255,230,230" fill="1" layer="-1.00" shape="3492.307373,10920.263694 3520.438434,10882.349800 3539.582563,10896.430285 3535.974254,10901.299582 3530.401851,10897.195410 3505.870067,10930.240069 3492.307373,10920.263694"/>
    <poly id="1132433700" type="building.yes" color="255,230,230" fill="1" layer="-1.00" shape="3467.712122,10850.102909 3457.883891,10836.021214 3469.740965,10827.813050 3479.569185,10841.894759 3467.712122,10850.102909"/>
    <poly id="1132433701" type="building.yes" color="255,230,230" fill="1" layer="-1.00" shape="3340.903121,10929.555666 3355.668018,10919.681448 3354.273712,10917.623716 3349.641079,10910.768128 3334.885181,10920.642246 3340.903121,10929.555666"/>
    <poly id="1132433702" type="building.yes" color="255,230,230" fill="1" layer="-1.00" shape="3354.273712,10917.623716 3367.611926,10908.232677 3361.168597,10899.157965 3347.803483,10908.560431 3349.641079,10910.768128 3354.273712,10917.623716"/>
    <poly id="1132433703" type="building.yes" color="255,230,230" fill="1" layer="-1.00" shape="3420.095268,10982.339104 3386.190391,10932.914315 3395.984654,10926.250788 3429.880491,10975.675722 3420.095268,10982.339104"/>
    <poly id="1132433704" type="building.apartments" color="255,230,230" fill="1" layer="-1.00" shape="3410.037867,11009.762428 3424.547505,11006.370227 3423.407787,11001.513757 3439.669385,10997.712170 3437.694547,10989.349008 3422.070787,10992.998687 3422.611682,10995.266409 3407.455167,10998.810635 3410.037867,11009.762428"/>
    <poly id="1132433707" type="building.yes" color="255,230,230" fill="1" layer="-1.00" shape="3401.452592,11085.282175 3430.176754,11078.701007 3421.612360,11041.650876 3410.651019,11044.168250 3417.875469,11075.443524 3400.121600,11079.507222 3401.452592,11085.282175"/>
    <poly id="1132433708" type="building.yes" color="255,230,230" fill="1" layer="-1.00" shape="3291.516771,11071.743038 3325.818148,11061.455397 3322.186549,11049.451272 3287.885262,11059.750019 3291.516771,11071.743038"/>
    <poly id="1132433709" type="building.yes" color="255,230,230" fill="1" layer="-1.00" shape="3327.967890,11058.922232 3370.254920,11047.395717 3366.796985,11034.845881 3355.221707,11038.003082 3336.893358,11042.994631 3324.518907,11046.372302 3327.967890,11058.922232"/>
    <poly id="1132433710" type="building.yes" color="255,230,230" fill="1" layer="-1.00" shape="3324.518907,11046.372302 3318.939840,11027.535664 3331.194129,11023.904277 3336.893358,11042.994631 3324.518907,11046.372302"/>
    <poly id="1132433711" type="building.yes" color="255,230,230" fill="1" layer="-1.00" shape="3366.796985,11034.845881 3360.658449,11012.942965 3349.057323,11016.200330 3355.221707,11038.003082 3366.796985,11034.845881"/>
    <poly id="1132433712" type="building.yes" color="255,230,230" fill="1" layer="-1.00" shape="3229.279616,10804.821408 3217.114131,10786.741122 3226.266391,10780.628765 3222.780027,10775.445662 3241.200899,10763.153002 3235.118215,10754.118395 3263.308388,10735.317711 3269.547013,10744.583425 3254.263157,10754.774674 3258.859641,10761.608465 3249.323051,10767.980587 3251.818661,10771.700179 3240.405029,10779.315309 3243.689576,10784.201321 3234.090365,10790.607500 3237.090555,10795.075377 3233.113243,10797.730483 3235.223258,10800.855658 3229.279616,10804.821408"/>
    <poly id="1132433713" type="building.yes" color="255,230,230" fill="1" layer="-1.00" shape="3174.314360,10723.878931 3156.863522,10698.651577 3188.067682,10677.251534 3191.588932,10682.334357 3196.119090,10688.891572 3174.306339,10703.832378 3183.706005,10717.441916 3174.314360,10723.878931"/>
    <poly id="1132433714" type="building.yes" color="255,230,230" fill="1" layer="-1.00" shape="3191.588932,10682.334357 3206.712570,10672.300252 3229.633187,10706.547517 3217.816644,10714.378324 3201.869498,10690.552736 3198.446260,10692.835063 3196.119090,10688.891572 3191.588932,10682.334357"/>
    <poly id="1132433715" type="building.yes" color="255,230,230" fill="1" layer="-1.00" shape="3193.057025,10750.887917 3178.511622,10729.730152 3208.573469,10709.242588 3215.259087,10718.957714 3193.686799,10733.662598 3201.546425,10745.094174 3193.057025,10750.887917"/>
    <poly id="1132433716" type="building.yes" color="255,230,230" fill="1" layer="-1.00" shape="3204.005686,10764.445475 3231.411447,10746.353077 3224.464782,10735.908896 3206.051273,10748.068374 3207.097283,10749.631067 3198.096137,10755.575209 3204.005686,10764.445475"/>
    <poly id="1132433717" type="building.yes" color="255,230,230" fill="1" layer="-1.00" shape="3055.320334,10709.742063 3067.264735,10696.850672 3072.166536,10701.350960 3060.222135,10714.242345 3055.320334,10709.742063"/>
    <poly id="1132433718" type="building.apartments" color="255,230,230" fill="1" layer="-1.00" shape="3089.705342,11021.341792 3118.613789,11031.486965 3121.558660,11023.186402 3115.170759,11020.945030 3117.409968,11014.638806 3094.880242,11006.724005 3089.705342,11021.341792"/>
    <poly id="1132433719" type="building.apartments" color="255,230,230" fill="1" layer="-1.00" shape="3136.308390,11035.189138 3170.519906,11045.791772 3172.489033,11039.499922 3169.305646,11038.506669 3172.879634,11027.092231 3153.182848,11020.984627 3151.057481,11027.766502 3142.918225,11025.235654 3141.226518,11030.625552 3138.043258,11029.643403 3136.308390,11035.189138"/>
    <poly id="1132433720" type="building.apartments" color="255,230,230" fill="1" layer="-1.00" shape="3145.196264,11011.706846 3170.091626,11007.378805 3165.766171,10982.713902 3149.762558,10985.492243 3150.943110,10992.223057 3146.285910,10993.033746 3143.038680,10999.429806 3145.196264,11011.706846"/>
    <poly id="1132433721" type="building.yes" color="255,230,230" fill="1" layer="-1.00" shape="3147.688947,10919.797106 3142.203032,10913.173815 3147.600289,10908.737570 3153.086337,10915.371956 3147.688947,10919.797106"/>
    <poly id="1132433722" type="building.yes" color="255,230,230" fill="1" layer="-1.00" shape="3257.050261,10982.565021 3248.018054,10974.730889 3213.627865,10928.474352 3226.813550,10919.894790 3258.288538,10964.988444 3265.864506,10972.352041 3257.050261,10982.565021"/>