<?xml version="1.0" encoding="UTF-8"?>

<!-- generated on 2025-04-11 15:53:02 by Eclipse SUMO netedit Version 1.22.0
<neteditConfiguration xmlns:xsi="http://www.w3.org/2001/XMLSchema-instance" xsi:noNamespaceSchemaLocation="http://sumo.dlr.de/xsd/neteditConfiguration.xsd">

    <input>
        <sumo-net-file value="/home/ykk/文档/SUMO 路网相关/地图制作/lanzhou/net1_4.net.xml"/>
    </input>

    <output>
        <output-file value="/home/ykk/文档/SUMO 路网相关/地图制作/lanzhou/net1_4.net.xml"/>
        <output.street-names value="true"/>
    </output>

    <processing>
        <geometry.min-radius.fix.railways value="false"/>
        <geometry.max-grade.fix value="false"/>
        <offset.disable-normalization value="true"/>
        <lefthand value="0"/>
    </processing>

    <junctions>
        <no-turnarounds value="true"/>
        <junctions.corner-detail value="5"/>
        <junctions.limit-turn-speed value="5.50"/>
        <rectangular-lane-cut value="0"/>
    </junctions>

    <pedestrian>
        <walkingareas value="0"/>
    </pedestrian>

</neteditConfiguration>
-->

<net version="1.20" junctionCornerDetail="5" limitTurnSpeed="5.50" xmlns:xsi="http://www.w3.org/2001/XMLSchema-instance" xsi:noNamespaceSchemaLocation="http://sumo.dlr.de/xsd/net_file.xsd">

    <location netOffset="-390820.92,-3978482.43" convBoundary="0.00,4205.05,15251.64,16145.86" origBoundary="103.534231,35.924482,104.005782,36.120633" projParameter="+proj=utm +zone=48 +ellps=WGS84 +datum=WGS84 +units=m +no_defs"/>

    <type id="highway.motorway" priority="14" numLanes="2" speed="39.44" allow="private emergency authority army vip passenger hov taxi bus coach delivery truck trailer motorcycle evehicle custom1 custom2" oneway="1"/>
    <type id="highway.motorway_link" priority="9" numLanes="1" speed="22.22" allow="private emergency authority army vip passenger hov taxi bus coach delivery truck trailer motorcycle evehicle custom1 custom2" oneway="1"/>
    <type id="highway.pedestrian" priority="1" numLanes="1" speed="2.78" allow="pedestrian" oneway="1" width="2.00"/>
    <type id="highway.primary" priority="12" numLanes="2" speed="27.78" disallow="tram rail_urban rail rail_electric rail_fast ship" oneway="0"/>
    <type id="highway.primary_link" priority="7" numLanes="1" speed="22.22" disallow="tram rail_urban rail rail_electric rail_fast ship" oneway="0"/>
    <type id="highway.secondary" priority="11" numLanes="1" speed="27.78" disallow="tram rail_urban rail rail_electric rail_fast ship" oneway="0"/>
    <type id="highway.secondary_link" priority="6" numLanes="1" speed="22.22" disallow="tram rail_urban rail rail_electric rail_fast ship" oneway="0"/>
    <type id="highway.service" priority="1" numLanes="1" speed="5.56" allow="pedestrian delivery bicycle" oneway="0"/>
    <type id="highway.tertiary" priority="10" numLanes="1" speed="22.22" disallow="tram rail_urban rail rail_electric rail_fast ship" oneway="0"/>
    <type id="highway.tertiary_link" priority="5" numLanes="1" speed="22.22" disallow="tram rail_urban rail rail_electric rail_fast ship" oneway="0"/>
    <type id="highway.trunk" priority="13" numLanes="2" speed="27.78" disallow="pedestrian bicycle tram rail_urban rail rail_electric rail_fast ship" oneway="0"/>
    <type id="highway.trunk_link" priority="8" numLanes="1" speed="22.22" disallow="pedestrian bicycle tram rail_urban rail rail_electric rail_fast ship" oneway="0"/>

    <edge id=":10310630555_0" function="internal">
        <lane id=":10310630555_0_0" index="0" disallow="tram rail_urban rail rail_electric rail_fast ship cable_car subway" speed="27.78" length="3.40" shape="9006.86,14063.12 9003.94,14064.85"/>
    </edge>
    <edge id=":10310630555_1" function="internal">
        <lane id=":10310630555_1_0" index="0" disallow="tram rail_urban rail rail_electric rail_fast ship cable_car subway" speed="25.00" length="3.30" shape="9005.20,14060.39 9004.36,14060.89 9003.77,14061.21 9003.15,14061.48 9002.24,14061.82"/>
    </edge>
    <edge id=":10310630563_0" function="internal">
        <lane id=":10310630563_0_0" index="0" disallow="tram rail_urban rail rail_electric rail_fast ship cable_car subway" speed="27.78" length="3.16" shape="8675.70,14302.12 8676.58,14305.15"/>
        <lane id=":10310630563_0_1" index="1" disallow="tram rail_urban rail rail_electric rail_fast ship cable_car subway" speed="27.78" length="3.16" shape="8672.63,14303.01 8673.51,14306.05"/>
    </edge>
    <edge id=":10310630563_2" function="internal">
        <lane id=":10310630563_2_0" index="0" disallow="tram rail_urban rail rail_electric rail_fast ship cable_car subway" speed="25.00" length="3.14" shape="8678.72,14301.24 8679.65,14304.25"/>
    </edge>
    <edge id=":10310630590_0" function="internal">
        <lane id=":10310630590_0_0" index="0" disallow="tram rail_urban rail rail_electric rail_fast ship cable_car subway" speed="10.35" length="3.71" shape="10388.29,13455.15 10388.64,13456.19 10388.96,13456.88 10389.41,13457.49 10390.16,13458.29"/>
    </edge>
    <edge id=":10310630590_1" function="internal">
        <lane id=":10310630590_1_0" index="0" disallow="tram rail_urban rail rail_electric rail_fast ship cable_car subway" speed="27.78" length="3.76" shape="10385.24,13456.12 10386.39,13459.70"/>
    </edge>
    <edge id=":10310630592_0" function="internal">
        <lane id=":10310630592_0_0" index="0" disallow="tram rail_urban rail rail_electric rail_fast ship cable_car subway" speed="9.24" length="3.80" shape="10419.99,13470.32 10421.10,13470.49 10421.88,13470.52 10422.64,13470.36 10423.70,13469.99"/>
    </edge>
    <edge id=":10310630592_1" function="internal">
        <lane id=":10310630592_1_0" index="0" disallow="tram rail_urban rail rail_electric rail_fast ship cable_car subway" speed="27.78" length="3.86" shape="10421.16,13474.31 10424.79,13473.00"/>
    </edge>
    <edge id=":10310630593_0" function="internal">
        <lane id=":10310630593_0_0" index="0" disallow="tram rail_urban rail rail_electric rail_fast ship cable_car subway" speed="15.01" length="3.54" shape="10337.70,13501.93 10338.67,13501.54 10339.32,13501.22 10339.91,13500.80 10340.70,13500.12"/>
    </edge>
    <edge id=":10310630593_1" function="internal">
        <lane id=":10310630593_1_0" index="0" disallow="tram rail_urban rail rail_electric rail_fast ship cable_car subway" speed="27.78" length="3.54" shape="10338.85,13504.92 10342.16,13503.65"/>
    </edge>
    <edge id=":10310630596_0" function="internal">
        <lane id=":10310630596_0_0" index="0" disallow="tram rail_urban rail rail_electric rail_fast ship cable_car subway" speed="27.78" length="3.72" shape="10365.49,13463.98 10364.40,13460.43"/>
    </edge>
    <edge id=":10310630596_1" function="internal">
        <lane id=":10310630596_1_0" index="0" disallow="tram rail_urban rail rail_electric rail_fast ship cable_car subway" speed="11.06" length="3.67" shape="10361.65,13464.98 10361.78,13463.90 10361.79,13463.15 10361.65,13462.41 10361.34,13461.37"/>
    </edge>
    <edge id=":1033676667_0" function="internal">
        <lane id=":1033676667_0_0" index="0" disallow="tram rail_urban rail rail_electric rail_fast ship cable_car subway" speed="6.26" length="9.04" shape="7168.21,11796.52 7167.60,11794.07 7166.36,11792.50 7164.48,11791.82 7161.96,11792.01"/>
    </edge>
    <edge id=":1033676667_1" function="internal">
        <lane id=":1033676667_1_0" index="0" disallow="tram rail_urban rail rail_electric rail_fast ship cable_car subway" speed="26.58" length="20.05" shape="7168.21,11796.52 7167.58,11790.47 7167.40,11786.14 7168.01,11781.91 7169.73,11776.12"/>
        <lane id=":1033676667_1_1" index="1" disallow="tram rail_urban rail rail_electric rail_fast ship cable_car subway" speed="25.71" length="20.05" shape="7171.39,11796.20 7170.78,11790.48 7170.58,11786.50 7171.14,11782.60 7172.77,11777.14"/>
    </edge>
    <edge id=":1033676667_3" function="internal">
        <lane id=":1033676667_3_0" index="0" disallow="tram rail_urban rail rail_electric rail_fast ship cable_car subway" speed="23.84" length="17.33" shape="7178.84,11779.18 7177.45,11783.87 7177.01,11787.22 7177.21,11790.65 7177.76,11795.56"/>
        <lane id=":1033676667_3_1" index="1" disallow="tram rail_urban rail rail_electric rail_fast ship cable_car subway" speed="24.79" length="17.33" shape="7175.80,11778.16 7174.29,11783.24 7173.80,11786.86 7174.00,11790.56 7174.58,11795.88"/>
    </edge>
    <edge id=":1033676667_5" function="internal">
        <lane id=":1033676667_5_0" index="0" disallow="tram rail_urban rail rail_electric rail_fast ship cable_car subway" speed="11.84" length="3.80" shape="7175.80,11778.16 7174.05,11781.53"/>
    </edge>
    <edge id=":1033676667_8" function="internal">
        <lane id=":1033676667_8_0" index="0" disallow="tram rail_urban rail rail_electric rail_fast ship cable_car subway" speed="11.84" length="15.09" shape="7174.05,11781.53 7173.88,11781.86 7170.81,11784.88 7166.61,11787.23 7161.27,11788.89"/>
    </edge>
    <edge id=":1033676667_6" function="internal">
        <lane id=":1033676667_6_0" index="0" disallow="tram rail_urban rail rail_electric rail_fast ship cable_car subway" speed="9.61" length="12.31" shape="7159.86,11782.60 7163.59,11781.51 7166.49,11780.07 7168.53,11778.27 7169.73,11776.12"/>
    </edge>
    <edge id=":1033676667_7" function="internal">
        <lane id=":1033676667_7_0" index="0" disallow="tram rail_urban rail rail_electric rail_fast ship cable_car subway" speed="9.10" length="20.30" shape="7160.56,11785.72 7166.20,11785.31 7170.42,11786.87 7173.21,11790.39 7174.58,11795.88"/>
    </edge>
    <edge id=":1033676681_0" function="internal">
        <lane id=":1033676681_0_0" index="0" disallow="tram rail_urban rail rail_electric rail_fast ship cable_car subway" speed="22.22" length="20.36" shape="4648.89,11837.97 4628.84,11841.15"/>
        <lane id=":1033676681_0_1" index="1" disallow="tram rail_urban rail rail_electric rail_fast ship cable_car subway" speed="22.22" length="20.36" shape="4648.45,11834.80 4628.28,11838.00"/>
    </edge>
    <edge id=":1033676681_2" function="internal">
        <lane id=":1033676681_2_0" index="0" disallow="tram rail_urban rail rail_electric rail_fast ship cable_car subway" speed="9.29" length="4.46" shape="4648.45,11834.80 4643.99,11834.78"/>
    </edge>
    <edge id=":1033676681_8" function="internal">
        <lane id=":1033676681_8_0" index="0" disallow="tram rail_urban rail rail_electric rail_fast ship cable_car subway" speed="9.29" length="14.70" shape="4643.99,11834.78 4643.23,11834.78 4639.23,11833.10 4636.44,11829.76 4634.87,11824.75"/>
    </edge>
    <edge id=":1033676681_3" function="internal">
        <lane id=":1033676681_3_0" index="0" disallow="tram rail_urban rail rail_electric rail_fast ship cable_car subway" speed="6.55" length="9.01" shape="4641.19,11823.71 4641.93,11826.08 4643.23,11827.66 4645.11,11828.45 4647.56,11828.46"/>
    </edge>
    <edge id=":1033676681_4" function="internal">
        <lane id=":1033676681_4_0" index="0" disallow="tram rail_urban rail rail_electric rail_fast ship cable_car subway" speed="9.26" length="19.18" shape="4638.03,11824.23 4638.14,11829.48 4636.56,11833.52 4633.27,11836.36 4628.28,11838.00"/>
    </edge>
    <edge id=":1033676681_5" function="internal">
        <lane id=":1033676681_5_0" index="0" disallow="tram rail_urban rail rail_electric rail_fast ship cable_car subway" speed="6.51" length="8.95" shape="4627.17,11831.69 4629.49,11830.93 4631.03,11829.61 4631.77,11827.72 4631.72,11825.27"/>
        <lane id=":1033676681_5_1" index="1" disallow="tram rail_urban rail rail_electric rail_fast ship cable_car subway" speed="8.00" length="14.07" shape="4627.72,11834.84 4631.38,11833.65 4633.79,11831.56 4634.96,11828.60 4634.87,11824.75"/>
    </edge>
    <edge id=":1033676681_7" function="internal">
        <lane id=":1033676681_7_0" index="0" disallow="tram rail_urban rail rail_electric rail_fast ship cable_car subway" speed="22.22" length="20.53" shape="4627.72,11834.84 4648.00,11831.63"/>
    </edge>
    <edge id=":1033676784_0" function="internal">
        <lane id=":1033676784_0_0" index="0" disallow="tram rail_urban rail rail_electric rail_fast ship cable_car subway" speed="25.00" length="0.30" shape="7129.68,9662.61 7129.40,9662.70"/>
        <lane id=":1033676784_0_1" index="1" disallow="tram rail_urban rail rail_electric rail_fast ship cable_car subway" speed="25.00" length="0.30" shape="7128.76,9659.55 7128.47,9659.63"/>
    </edge>
    <edge id=":1033676784_2" function="internal">
        <lane id=":1033676784_2_0" index="0" disallow="tram rail_urban rail rail_electric rail_fast ship cable_car subway" speed="25.00" length="0.30" shape="7126.62,9653.51 7126.90,9653.42"/>
        <lane id=":1033676784_2_1" index="1" disallow="tram rail_urban rail rail_electric rail_fast ship cable_car subway" speed="25.00" length="0.30" shape="7127.54,9656.57 7127.83,9656.49"/>
    </edge>
    <edge id=":1033676805_0" function="internal">
        <lane id=":1033676805_0_0" index="0" disallow="tram rail_urban rail rail_electric rail_fast ship cable_car subway" speed="6.65" length="9.33" shape="6638.52,11954.37 6637.41,11952.05 6635.84,11950.62 6633.80,11950.08 6631.31,11950.44"/>
    </edge>
    <edge id=":1033676805_1" function="internal">
        <lane id=":1033676805_1_0" index="0" disallow="tram rail_urban rail rail_electric rail_fast ship cable_car subway" speed="22.22" length="21.05" shape="6638.52,11954.37 6632.36,11934.24"/>
    </edge>
    <edge id=":1033676805_2" function="internal">
        <lane id=":1033676805_2_0" index="0" disallow="tram rail_urban rail rail_electric rail_fast ship cable_car subway" speed="9.23" length="19.49" shape="6641.57,11953.40 6640.69,11948.12 6641.72,11943.85 6644.66,11940.59 6649.52,11938.34"/>
    </edge>
    <edge id=":1033676805_3" function="internal">
        <lane id=":1033676805_3_0" index="0" disallow="tram rail_urban rail rail_electric rail_fast ship cable_car subway" speed="6.47" length="9.03" shape="6651.36,11944.47 6649.11,11945.51 6647.74,11947.02 6647.27,11949.00 6647.68,11951.45"/>
    </edge>
    <edge id=":1033676805_4" function="internal">
        <lane id=":1033676805_4_0" index="0" disallow="tram rail_urban rail rail_electric rail_fast ship cable_car subway" speed="27.78" length="20.92" shape="6651.36,11944.47 6631.31,11950.44"/>
    </edge>
    <edge id=":1033676805_5" function="internal">
        <lane id=":1033676805_5_0" index="0" disallow="tram rail_urban rail rail_electric rail_fast ship cable_car subway" speed="9.27" length="19.46" shape="6650.44,11941.41 6645.15,11942.21 6640.88,11941.13 6637.64,11938.17 6635.43,11933.34"/>
    </edge>
    <edge id=":1033676805_6" function="internal">
        <lane id=":1033676805_6_0" index="0" disallow="tram rail_urban rail rail_electric rail_fast ship cable_car subway" speed="6.52" length="9.10" shape="6641.57,11931.53 6642.60,11933.78 6644.12,11935.15 6646.12,11935.65 6648.61,11935.27"/>
    </edge>
    <edge id=":1033676805_7" function="internal">
        <lane id=":1033676805_7_0" index="0" disallow="tram rail_urban rail rail_electric rail_fast ship cable_car subway" speed="22.22" length="20.84" shape="6641.57,11931.53 6647.68,11951.45"/>
    </edge>
    <edge id=":1033676805_8" function="internal">
        <lane id=":1033676805_8_0" index="0" disallow="tram rail_urban rail rail_electric rail_fast ship cable_car subway" speed="9.27" length="19.38" shape="6638.50,11932.43 6639.27,11937.69 6638.17,11941.94 6635.22,11945.16 6630.40,11947.37"/>
    </edge>
    <edge id=":1033676805_9" function="internal">
        <lane id=":1033676805_9_0" index="0" disallow="tram rail_urban rail rail_electric rail_fast ship cable_car subway" speed="6.52" length="9.06" shape="6628.58,11941.23 6630.83,11940.20 6632.21,11938.69 6632.72,11936.70 6632.36,11934.24"/>
    </edge>
    <edge id=":1033676805_10" function="internal">
        <lane id=":1033676805_10_0" index="0" disallow="tram rail_urban rail rail_electric rail_fast ship cable_car subway" speed="27.78" length="20.89" shape="6628.58,11941.23 6648.61,11935.27"/>
    </edge>
    <edge id=":1033676805_11" function="internal">
        <lane id=":1033676805_11_0" index="0" disallow="tram rail_urban rail rail_electric rail_fast ship cable_car subway" speed="9.36" length="19.50" shape="6629.49,11944.30 6634.74,11943.54 6639.01,11944.64 6642.31,11947.60 6644.63,11952.42"/>
    </edge>
    <edge id=":1033676848_0" function="internal">
        <lane id=":1033676848_0_0" index="0" disallow="tram rail_urban rail rail_electric rail_fast ship cable_car subway" speed="3.65" length="4.67" shape="3130.57,12710.16 3129.26,12709.56 3128.73,12708.84 3129.00,12707.98 3130.06,12707.00"/>
    </edge>
    <edge id=":1033676848_1" function="internal">
        <lane id=":1033676848_1_0" index="0" disallow="tram rail_urban rail rail_electric rail_fast ship cable_car subway" speed="8.19" length="7.02" shape="3124.45,12710.84 3125.51,12709.38 3126.80,12708.26 3128.32,12707.46 3130.06,12707.00"/>
    </edge>
    <edge id=":1033676890_0" function="internal">
        <lane id=":1033676890_0_0" index="0" disallow="tram rail_urban rail rail_electric rail_fast ship cable_car subway" speed="27.78" length="20.59" shape="6752.63,12229.19 6737.21,12242.69"/>
        <lane id=":1033676890_0_1" index="1" disallow="tram rail_urban rail rail_electric rail_fast ship cable_car subway" speed="27.78" length="20.59" shape="6750.58,12226.73 6735.02,12240.36"/>
    </edge>
    <edge id=":1033676890_2" function="internal">
        <lane id=":1033676890_2_0" index="0" disallow="tram rail_urban rail rail_electric rail_fast ship cable_car subway" speed="8.99" length="4.24" shape="6750.58,12226.73 6746.97,12228.94"/>
    </edge>
    <edge id=":1033676890_8" function="internal">
        <lane id=":1033676890_8_0" index="0" disallow="tram rail_urban rail rail_electric rail_fast ship cable_car subway" speed="8.99" length="16.83" shape="6746.97,12228.94 6745.50,12229.85 6740.95,12230.32 6736.92,12228.15 6733.43,12223.33"/>
    </edge>
    <edge id=":1033676890_3" function="internal">
        <lane id=":1033676890_3_0" index="0" disallow="tram rail_urban rail rail_electric rail_fast ship cable_car subway" speed="6.09" length="9.06" shape="6739.13,12220.33 6740.63,12222.41 6742.35,12223.35 6744.31,12223.15 6746.49,12221.80"/>
    </edge>
    <edge id=":1033676890_4" function="internal">
        <lane id=":1033676890_4_0" index="0" disallow="tram rail_urban rail rail_electric rail_fast ship cable_car subway" speed="10.54" length="20.09" shape="6736.30,12221.82 6738.49,12227.34 6739.01,12232.27 6737.86,12236.61 6735.02,12240.36"/>
    </edge>
    <edge id=":1033676890_5" function="internal">
        <lane id=":1033676890_5_0" index="0" disallow="tram rail_urban rail rail_electric rail_fast ship cable_car subway" speed="8.14" length="11.70" shape="6730.64,12235.70 6732.06,12233.68 6732.53,12231.19 6732.04,12228.24 6730.60,12224.82"/>
    </edge>
    <edge id=":1033676890_6" function="internal">
        <lane id=":1033676890_6_0" index="0" disallow="tram rail_urban rail rail_electric rail_fast ship cable_car subway" speed="27.78" length="20.98" shape="6730.64,12235.70 6746.49,12221.80"/>
        <lane id=":1033676890_6_1" index="1" disallow="tram rail_urban rail rail_electric rail_fast ship cable_car subway" speed="27.78" length="20.98" shape="6732.83,12238.03 6748.54,12224.27"/>
    </edge>
    <edge id=":10588992463_0" function="internal">
        <lane id=":10588992463_0_0" index="0" disallow="tram rail_urban rail rail_electric rail_fast ship cable_car subway" speed="27.78" length="10.47" shape="5248.87,13078.80 5238.44,13077.67"/>
        <lane id=":10588992463_0_1" index="1" disallow="tram rail_urban rail rail_electric rail_fast ship cable_car subway" speed="27.78" length="10.47" shape="5249.19,13075.62 5238.80,13074.49"/>
    </edge>
    <edge id=":10588992463_2" function="internal">
        <lane id=":10588992463_2_0" index="0" disallow="tram rail_urban rail rail_electric rail_fast ship cable_car subway" speed="6.64" length="8.92" shape="5243.39,13083.88 5243.17,13081.38 5242.27,13079.51 5240.69,13078.28 5238.44,13077.67"/>
        <lane id=":10588992463_2_1" index="1" disallow="tram rail_urban rail rail_electric rail_fast ship cable_car subway" speed="8.11" length="13.81" shape="5246.59,13084.01 5246.23,13080.19 5244.82,13077.33 5242.34,13075.43 5238.80,13074.49"/>
    </edge>
    <edge id=":10588992484_0" function="internal">
        <lane id=":10588992484_0_0" index="0" disallow="tram rail_urban rail rail_electric rail_fast ship cable_car subway" speed="6.31" length="9.04" shape="5260.10,13080.05 5257.59,13080.12 5255.78,13080.99 5254.67,13082.66 5254.25,13085.14"/>
        <lane id=":10588992484_0_1" index="1" disallow="tram rail_urban rail rail_electric rail_fast ship cable_car subway" speed="7.15" length="11.90" shape="5260.10,13080.05 5256.19,13079.97 5253.38,13080.78 5251.67,13082.48 5251.05,13085.07"/>
    </edge>
    <edge id=":10588992484_2" function="internal">
        <lane id=":10588992484_2_0" index="0" disallow="tram rail_urban rail rail_electric rail_fast ship cable_car subway" speed="27.78" length="11.12" shape="5260.10,13080.05 5249.07,13078.82"/>
        <lane id=":10588992484_2_1" index="1" disallow="tram rail_urban rail rail_electric rail_fast ship cable_car subway" speed="27.78" length="11.12" shape="5260.47,13076.87 5249.39,13075.64"/>
    </edge>
    <edge id=":11007676087_0" function="internal">
        <lane id=":11007676087_0_0" index="0" disallow="tram rail_urban rail rail_electric rail_fast ship cable_car subway" speed="27.78" length="8.01" shape="2608.53,13507.19 2610.71,13506.22 2612.06,13505.23 2613.43,13504.28 2615.64,13503.43"/>
        <lane id=":11007676087_0_1" index="1" disallow="tram rail_urban rail rail_electric rail_fast ship cable_car subway" speed="27.78" length="8.01" shape="2609.52,13510.23 2611.65,13509.28 2612.97,13508.30 2614.30,13507.36 2616.46,13506.53"/>
    </edge>
    <edge id=":11007676089_0" function="internal">
        <lane id=":11007676089_0_0" index="0" disallow="tram rail_urban rail rail_electric rail_fast ship cable_car subway" speed="27.78" length="0.65" shape="1586.83,13615.90 1586.90,13615.92 1586.94,13615.92 1586.98,13615.93 1587.05,13615.93"/>
        <lane id=":11007676089_0_1" index="1" disallow="tram rail_urban rail rail_electric rail_fast ship cable_car subway" speed="27.78" length="0.65" shape="1586.25,13619.05 1586.44,13619.09 1586.57,13619.10 1586.70,13619.12 1586.89,13619.13"/>
        <lane id=":11007676089_0_2" index="2" disallow="tram rail_urban rail rail_electric rail_fast ship cable_car subway" speed="27.78" length="0.65" shape="1585.67,13622.20 1585.98,13622.25 1586.20,13622.29 1586.42,13622.31 1586.74,13622.32"/>
    </edge>
    <edge id=":11007676103_0" function="internal">
        <lane id=":11007676103_0_0" index="0" disallow="tram rail_urban rail rail_electric rail_fast ship cable_car subway" speed="27.78" length="5.62" shape="1376.87,13602.37 1382.20,13600.04"/>
        <lane id=":11007676103_0_1" index="1" disallow="tram rail_urban rail rail_electric rail_fast ship cable_car subway" speed="27.78" length="5.62" shape="1378.26,13605.26 1383.40,13603.00"/>
        <lane id=":11007676103_0_2" index="2" disallow="tram rail_urban rail rail_electric rail_fast ship cable_car subway" speed="27.78" length="5.62" shape="1379.64,13608.14 1384.61,13605.97"/>
    </edge>
    <edge id=":11007676103_3" function="internal">
        <lane id=":11007676103_3_0" index="0" disallow="tram rail_urban rail rail_electric rail_fast ship cable_car subway" speed="14.54" length="6.46" shape="1381.03,13611.02 1382.76,13610.22 1384.01,13609.79 1385.32,13609.62 1387.23,13609.56"/>
        <lane id=":11007676103_3_1" index="1" disallow="tram rail_urban rail rail_electric rail_fast ship cable_car subway" speed="12.91" length="5.07" shape="1382.42,13613.91 1383.77,13613.28 1384.76,13612.94 1385.78,13612.80 1387.28,13612.76"/>
        <lane id=":11007676103_3_2" index="2" disallow="tram rail_urban rail rail_electric rail_fast ship cable_car subway" speed="11.04" length="3.67" shape="1383.80,13616.79 1384.79,13616.34 1385.50,13616.09 1386.24,13615.99 1387.33,13615.96"/>
    </edge>
    <edge id=":11288276666_0" function="internal">
        <lane id=":11288276666_0_0" index="0" disallow="tram rail_urban rail rail_electric rail_fast ship cable_car subway" speed="5.46" length="10.19" shape="2904.58,13532.02 2901.35,13532.93 2900.12,13534.16 2900.89,13535.72 2903.67,13537.60"/>
    </edge>
    <edge id=":11288276666_1" function="internal">
        <lane id=":11288276666_1_0" index="0" disallow="tram rail_urban rail rail_electric rail_fast ship cable_car subway" speed="27.78" length="24.94" shape="2904.58,13532.02 2879.91,13536.03"/>
        <lane id=":11288276666_1_1" index="1" disallow="tram rail_urban rail rail_electric rail_fast ship cable_car subway" speed="27.78" length="24.94" shape="2904.03,13528.87 2879.46,13532.86"/>
    </edge>
    <edge id=":11288276666_3" function="internal">
        <lane id=":11288276666_3_0" index="0" disallow="tram rail_urban rail rail_electric rail_fast ship cable_car subway" speed="27.78" length="27.32" shape="2881.84,13522.62 2887.76,13527.81 2892.08,13531.07 2896.73,13533.85 2903.67,13537.60"/>
        <lane id=":11288276666_3_1" index="1" disallow="tram rail_urban rail rail_electric rail_fast ship cable_car subway" speed="27.78" length="27.32" shape="2881.84,13522.62 2887.58,13528.31 2891.30,13532.50 2895.38,13536.19 2902.14,13540.42"/>
        <lane id=":11288276666_3_2" index="2" disallow="tram rail_urban rail rail_electric rail_fast ship cable_car subway" speed="27.78" length="27.32" shape="2881.84,13522.62 2887.42,13528.84 2890.52,13533.93 2893.97,13538.52 2900.62,13543.23"/>
    </edge>
    <edge id=":11288276666_6" function="internal">
        <lane id=":11288276666_6_0" index="0" disallow="tram rail_urban rail rail_electric rail_fast ship cable_car subway" speed="6.96" length="16.06" shape="2879.70,13525.00 2883.70,13529.28 2885.06,13532.54 2883.80,13534.79 2879.91,13536.03"/>
        <lane id=":11288276666_6_1" index="1" disallow="tram rail_urban rail rail_electric rail_fast ship cable_car subway" speed="5.00" length="7.51" shape="2877.56,13527.38 2879.75,13529.58 2880.79,13531.23 2880.70,13532.32 2879.46,13532.86"/>
    </edge>
    <edge id=":11288276667_0" function="internal">
        <lane id=":11288276667_0_0" index="0" disallow="tram rail_urban rail rail_electric rail_fast ship cable_car subway" speed="8.79" length="25.50" shape="2861.46,13526.55 2859.10,13519.35 2859.50,13513.20 2862.85,13509.19 2869.34,13508.44"/>
        <lane id=":11288276667_0_1" index="1" disallow="tram rail_urban rail rail_electric rail_fast ship cable_car subway" speed="7.80" length="19.74" shape="2864.32,13525.11 2861.72,13518.50 2861.61,13514.05 2863.99,13511.75 2868.86,13511.61"/>
        <lane id=":11288276667_0_2" index="2" disallow="tram rail_urban rail rail_electric rail_fast ship cable_car subway" speed="6.16" length="11.75" shape="2867.19,13523.68 2865.41,13519.43 2865.02,13516.53 2866.01,13514.98 2868.37,13514.77"/>
        <lane id=":11288276667_0_3" index="3" disallow="tram rail_urban rail rail_electric rail_fast ship cable_car subway" speed="5.09" length="7.54" shape="2867.19,13523.68 2866.04,13520.95 2865.78,13519.07 2866.39,13518.07 2867.89,13517.93"/>
    </edge>
    <edge id=":11288276667_4" function="internal">
        <lane id=":11288276667_4_0" index="0" disallow="tram rail_urban rail rail_electric rail_fast ship cable_car subway" speed="27.78" length="17.74" shape="2851.96,13512.28 2857.42,13511.58 2860.90,13508.77 2864.37,13505.96 2869.83,13505.28"/>
        <lane id=":11288276667_4_1" index="1" disallow="tram rail_urban rail rail_electric rail_fast ship cable_car subway" speed="27.78" length="17.74" shape="2851.96,13512.28 2857.15,13512.05 2860.65,13510.35 2864.15,13508.66 2869.34,13508.44"/>
        <lane id=":11288276667_4_2" index="2" disallow="tram rail_urban rail rail_electric rail_fast ship cable_car subway" speed="27.78" length="17.74" shape="2851.96,13512.28 2856.96,13512.52 2860.41,13511.93 2863.87,13511.35 2868.86,13511.61"/>
        <lane id=":11288276667_4_3" index="3" disallow="tram rail_urban rail rail_electric rail_fast ship cable_car subway" speed="27.78" length="17.74" shape="2851.49,13515.44 2856.48,13515.69 2859.93,13515.10 2863.39,13514.51 2868.37,13514.77"/>
        <lane id=":11288276667_4_4" index="4" disallow="tram rail_urban rail rail_electric rail_fast ship cable_car subway" speed="27.78" length="17.74" shape="2851.49,13515.44 2867.89,13517.93"/>
    </edge>
    <edge id=":11506732434_0" function="internal">
        <lane id=":11506732434_0_0" index="0" disallow="tram rail_urban rail rail_electric rail_fast ship cable_car subway" speed="5.79" length="13.29" shape="1441.53,13603.55 1437.38,13605.86 1436.18,13607.38 1437.94,13608.10 1442.65,13608.02"/>
    </edge>
    <edge id=":11506732434_1" function="internal">
        <lane id=":11506732434_1_0" index="0" disallow="tram rail_urban rail rail_electric rail_fast ship cable_car subway" speed="22.22" length="49.85" shape="1441.53,13603.55 1397.42,13626.35"/>
        <lane id=":11506732434_1_1" index="1" disallow="tram rail_urban rail rail_electric rail_fast ship cable_car subway" speed="22.22" length="49.85" shape="1440.14,13600.66 1395.86,13623.56"/>
        <lane id=":11506732434_1_2" index="2" disallow="tram rail_urban rail rail_electric rail_fast ship cable_car subway" speed="22.22" length="49.85" shape="1438.75,13597.78 1394.30,13620.77"/>
    </edge>
    <edge id=":11506732434_4" function="internal">
        <lane id=":11506732434_4_0" index="0" disallow="tram rail_urban rail rail_electric rail_fast ship cable_car subway" speed="27.78" length="49.80" shape="1392.89,13609.48 1442.65,13608.02"/>